LTspice 24.0.12 for Windows
Circuit: * C:\Users\MINHAJUL ISLAM.DESKTOP-VOB440U\Documents\LTspice\Common Base Transistor.asc
Start Time: Wed Dec 10 09:35:13 2025
solver = Normal
Maximum thread count: 8
tnom = 27
temp = 27
method = modified trap
c2: Increased Cpar to 1e-11
Direct Newton iteration for .op point succeeded.
Total elapsed time: 0.166 seconds.

