LTspice 24.0.12 for Windows
Circuit: * C:\Users\MINHAJUL ISLAM.DESKTOP-VOB440U\Documents\LTspice\Draft6.asc
Start Time: Wed Dec 10 00:22:02 2025
solver = Normal
Maximum thread count: 8
tnom = 27
temp = 27
method = modified trap
WARNING: Node N005 is floating.

.OP point found by inspection.
Total elapsed time: 0.149 seconds.

