LTspice 24.0.12 for Windows
Circuit: * C:\Users\MINHAJUL ISLAM.DESKTOP-VOB440U\Documents\LTspice\Draft7.asc
Start Time: Wed Dec 10 08:25:18 2025
solver = Normal
Maximum thread count: 8



Direct Newton iteration for .op point succeeded.



.step 1=145



.step 1=240



.step 1=335



.step 1=430



.step 1=525



.step 1=620



.step 1=715



.step 1=810



.step 1=905
tnom = 27
temp = 27
method = modified trap
.step 1=1000
Total elapsed time: 1.304 seconds.

