LTspice 24.0.12 for Windows
Circuit: * C:\Users\MINHAJUL ISLAM.DESKTOP-VOB440U\Documents\LTspice\Draft5.asc
Start Time: Wed Dec 10 00:01:10 2025
solver = Normal
Maximum thread count: 8
tnom = 27
temp = 27
method = modified trap
WARNING: Less than two connections to node nc_01.  This node is used by r2.
Direct Newton iteration for .op point succeeded.
Total elapsed time: 0.208 seconds.

