LTspice 24.0.12 for Windows
Circuit: * C:\Users\MINHAJUL ISLAM.DESKTOP-VOB440U\Documents\LTspice\Draft4.asc
Start Time: Thu Sep 25 20:51:30 2025
solver = Normal
Maximum thread count: 8
tnom = 27
temp = 27
method = modified trap
WARNING: Less than two connections to node n008.  This node is used by v3.
Direct Newton iteration for .op point succeeded.
Total elapsed time: 0.103 seconds.

