LTspice 24.0.12 for Windows
Circuit: * C:\Users\MINHAJUL ISLAM.DESKTOP-VOB440U\Documents\LTspice\Inverting Amplifier.asc
Start Time: Tue Dec  9 00:02:40 2025
solver = Normal
Maximum thread count: 8
tnom = 27
temp = 27
method = modified trap
Direct Newton iteration for .op point succeeded.
Total elapsed time: 0.200 seconds.

