LTspice 24.0.12 for Windows
Circuit: * C:\Users\MINHAJUL ISLAM.DESKTOP-VOB440U\Documents\LTspice\Inverting Non inverting.asc
Start Time: Mon Dec  8 10:21:53 2025
solver = Normal
Maximum thread count: 8
tnom = 27
temp = 27
method = modified trap
Direct Newton iteration for .op point succeeded.
Total elapsed time: 0.434 seconds.

