LTspice 24.0.12 for Windows
Circuit: * C:\Users\MINHAJUL ISLAM.DESKTOP-VOB440U\Documents\LTspice\prac-2 Zener.asc
Start Time: Tue Dec  9 10:01:37 2025
Error on line 2 : v1 n001 0 v
	 Unknown parameter "v"
solver = Normal
Maximum thread count: 8
tnom = 27
temp = 27
method = modified trap
v1: Missing value, assumed 0V @ DC
.OP point found by inspection.
Total elapsed time: 0.120 seconds.

