LTspice 24.0.12 for Windows
Circuit: * C:\Users\MINHAJUL ISLAM.DESKTOP-VOB440U\Documents\LTspice\Prac-10 Integrator.asc
Start Time: Tue Dec  9 11:21:41 2025
solver = Normal
Maximum thread count: 8
tnom = 27
temp = 27
method = modified trap
Direct Newton iteration for .op point succeeded.
Total elapsed time: 0.143 seconds.

