LTspice 24.0.12 for Windows
Circuit: * C:\Users\MINHAJUL ISLAM.DESKTOP-VOB440U\Documents\LTspice\SummingAmp.asc
Start Time: Tue Dec  9 20:30:15 2025
solver = Normal
Maximum thread count: 8
tnom = 27
temp = 27
method = modified trap
WARNING: Less than two connections to node n006.  This node is used by r3.
Direct Newton iteration for .op point succeeded.
Total elapsed time: 0.243 seconds.

